<?xml version="1.0" encoding="iso-8859-1"?>

<configuration xmlns:xsi="http://www.w3.org/2001/XMLSchema-instance" xsi:noNamespaceSchemaLocation="http://sumo.sf.net/xsd/sumoConfiguration.xsd">

    <input>
        <net-file value="intersection.net.xml"/>
        <route-files value="intersection.rou.xml"/>
    </input>

    <time>
        <step-length value="0.01"/>
    </time>

    <gui_only>
        <start value="true"/>
        <gui-settings-file value="intersection.gui.xml"/>
    </gui_only>

</configuration>
