<?xml version="1.0" encoding="UTF-8"?>

<!-- generated on 2023-10-06 00:06:02 by Eclipse SUMO netedit Version 1.18.0
-->

<routes xmlns:xsi="http://www.w3.org/2001/XMLSchema-instance" xsi:noNamespaceSchemaLocation="http://sumo.dlr.de/xsd/routes_file.xsd">
    <!-- Vehicles, persons and containers (sorted by depart) -->
    <trip id="t_0" depart="0.00" color="160,0,255" from="E10" to="E12"/>
    <trip id="t_1" depart="0.00" color="75,33,100" from="E10" to="E11"/>
    <trip id="t_2" depart="0.00" color="75,33,100" from="E10" to="E12"/>
</routes>
