<?xml version="1.0" encoding="UTF-8"?>

<!-- generated on 2023-10-06 00:07:05 by Eclipse SUMO netedit Version 1.18.0
<configuration xmlns:xsi="http://www.w3.org/2001/XMLSchema-instance" xsi:noNamespaceSchemaLocation="http://sumo.dlr.de/xsd/neteditConfiguration.xsd">

    <input>
        <sumocfg-file value="/home/chinmay/new/tutorial/t1/test.net.xml"/>
        <route-files value="/home/chinmay/new/tutorial/t1/test.rou.xml"/>
        <sumo-net-file value="/home/chinmay/new/tutorial/t1/test.net.xml.net.xml"/>
    </input>

    <output>
        <output-file value="/home/chinmay/new/tutorial/t1/test.net.xml.net.xml"/>
    </output>

    <processing>
        <offset.disable-normalization value="true"/>
    </processing>

    <junctions>
        <no-turnarounds value="true"/>
    </junctions>

    <netedit>
        <new-network value="false"/>
    </netedit>

</configuration>
-->

<net version="1.16" junctionCornerDetail="5" limitTurnSpeed="5.50" xmlns:xsi="http://www.w3.org/2001/XMLSchema-instance" xsi:noNamespaceSchemaLocation="http://sumo.dlr.de/xsd/net_file.xsd">

    <location netOffset="0.00,0.00" convBoundary="-50.00,-50.00,50.00,50.00" origBoundary="10000000000.00,10000000000.00,-10000000000.00,-10000000000.00" projParameter="!"/>

    <edge id=":2_0" function="internal">
        <lane id=":2_0_0" index="0" speed="6.51" length="9.03" shape="-7.20,-1.60 -4.75,-1.95 -3.00,-3.00 -1.95,-4.75 -1.60,-7.20"/>
    </edge>
    <edge id=":2_1" function="internal">
        <lane id=":2_1_0" index="0" speed="13.89" length="14.40" shape="-7.20,-1.60 7.20,-1.60"/>
    </edge>
    <edge id=":2_2" function="internal">
        <lane id=":2_2_0" index="0" speed="7.33" length="11.73" shape="-7.20,-1.60 -3.35,-1.25 -0.60,-0.20 1.05,1.55 1.60,4.00"/>
    </edge>

    <edge id="E10" from="1" to="2" priority="-1">
        <lane id="E10_0" index="0" speed="13.89" length="42.80" shape="-50.00,-1.60 -7.20,-1.60"/>
    </edge>
    <edge id="E11" from="2" to="4" priority="-1">
        <lane id="E11_0" index="0" speed="13.89" length="46.00" shape="1.60,4.00 1.60,50.00"/>
    </edge>
    <edge id="E12" from="2" to="3" priority="-1">
        <lane id="E12_0" index="0" speed="13.89" length="42.80" shape="7.20,-1.60 50.00,-1.60"/>
    </edge>
    <edge id="E13" from="2" to="5" priority="-1">
        <lane id="E13_0" index="0" speed="13.89" length="42.80" shape="-1.60,-7.20 -1.60,-50.00"/>
    </edge>

    <junction id="1" type="dead_end" x="-50.00" y="0.00" incLanes="" intLanes="" shape="-50.00,0.00 -50.00,-3.20"/>
    <junction id="2" type="priority" x="0.00" y="0.00" incLanes="E10_0" intLanes=":2_0_0 :2_1_0 :2_2_0" shape="0.00,4.00 3.20,4.00 3.64,1.78 4.20,1.00 4.98,0.44 5.98,0.11 7.20,0.00 7.20,-3.20 5.00,-3.31 3.20,-3.64 1.80,-4.20 0.80,-4.98 0.20,-5.98 0.00,-7.20 -3.20,-7.20 -3.64,-4.98 -4.20,-4.20 -4.98,-3.64 -5.98,-3.31 -7.20,-3.20 -7.20,0.00 -5.00,0.11 -3.20,0.44 -1.80,1.00 -0.80,1.78 -0.20,2.78">
        <request index="0" response="000" foes="000" cont="0"/>
        <request index="1" response="000" foes="000" cont="0"/>
        <request index="2" response="000" foes="000" cont="0"/>
    </junction>
    <junction id="3" type="dead_end" x="50.00" y="0.00" incLanes="E12_0" intLanes="" shape="50.00,-3.20 50.00,0.00"/>
    <junction id="4" type="dead_end" x="0.00" y="50.00" incLanes="E11_0" intLanes="" shape="3.20,50.00 0.00,50.00"/>
    <junction id="5" type="dead_end" x="0.00" y="-50.00" incLanes="E13_0" intLanes="" shape="-3.20,-50.00 0.00,-50.00"/>

    <connection from="E10" to="E13" fromLane="0" toLane="0" via=":2_0_0" dir="r" state="M"/>
    <connection from="E10" to="E12" fromLane="0" toLane="0" via=":2_1_0" dir="s" state="M"/>
    <connection from="E10" to="E11" fromLane="0" toLane="0" via=":2_2_0" dir="l" state="M"/>

    <connection from=":2_0" to="E13" fromLane="0" toLane="0" dir="r" state="M"/>
    <connection from=":2_1" to="E12" fromLane="0" toLane="0" dir="s" state="M"/>
    <connection from=":2_2" to="E11" fromLane="0" toLane="0" dir="l" state="M"/>

</net>
