<?xml version="1.0" encoding="UTF-8"?>

<!-- generated on 2023-10-06 00:07:05 by Eclipse SUMO sumo Version 1.18.0
-->

<configuration xmlns:xsi="http://www.w3.org/2001/XMLSchema-instance" xsi:noNamespaceSchemaLocation="http://sumo.dlr.de/xsd/sumoConfiguration.xsd">

    <input>
        <net-file value="test.net.xml.net.xml"/>
        <route-files value="test.rou.xml"/>
    </input>

</configuration>
